216
'Relaxed Chao Bulk Structure, energy = -1364.8355'
Si      2.178190000000000      0.007796530000000      2.175480000000000
C       3.272600000000000      1.096250000000000      1.086720000000000
Si      4.366470000000000      2.182450000000000      2.177260000000000
Si      6.549820000000000      0.008898750000000      2.167870000000000
C       7.644310000000000      1.095020000000000      1.084280000000000
Si     10.917899999999999      2.178520000000000     -0.004311800000000
Si      8.735060000000001      0.002691979999999     13.088699999999999
C      12.005300000000000      1.089880000000000      1.088670000000000
C       1.095920000000000      3.272500000000000      1.088020000000000
Si      0.008120180000000      4.360610000000000     -0.004919660000000
Si      2.187079999999999      4.363660000000000      2.177390000000000
C       5.456900000000000      3.268220000000000      1.083360000000000
Si      6.551119999999999      2.182209999999999     13.088699999999999
Si      6.551300000000000      4.353540000000000      2.166900000000000
C       9.828670000000001      3.266510000000000      1.086960000000000
Si      0.005866619999999      6.543050000000000      2.177260000000000
C       3.275399999999999      5.451980000000000      1.081790000000000
Si      4.367850000000000      6.544430000000000      2.162910000000000
C       7.645400000000000      5.436780000000000      1.069110000000000
Si      8.764390000000001      6.512810000000000      2.133020000000000
Si      8.740240000000000      4.350689999999999     13.082300000000000
C      12.011699999999999      5.449190000000000      1.086720000000000
C       1.091639999999999      7.633490000000000      1.083360000000000
Si      2.176959999999999      8.727880000000001      2.166900000000000
C       5.456769999999999      7.633350000000000      1.068390000000000
Si      6.550189999999999      8.726770000000000      2.143930000000000
C       9.841229999999999      7.632320000000000      1.069890000000000
Si     10.927899999999999      6.538049999999999     13.082500000000000
C       3.260200000000000      9.821980000000000      1.069110000000000
C       7.644369999999999      9.820950000000000      1.069580000000000
Si     10.918100000000001     10.911600000000000     13.088699999999999
C      12.010400000000001      9.820890000000000      1.084280000000000
Si     10.924300000000001      8.726400000000000      2.167870000000000
C       1.089919999999999     12.005300000000000      1.086960000000000
Si      4.336229999999999     10.941000000000001      2.133020000000000
C       5.455739999999999     12.017799999999999      1.069890000000000
Si      8.732450000000000     10.909000000000001      2.165490000000000
C       9.825570000000001     12.002200000000000      1.083970000000000
Si     13.093900000000000      0.002509169999999     13.087700000000000
C       1.092160000000000      1.093480000000000      3.269870000000000
Si     13.096700000000000      2.181230000000000      2.177480000000000
Si      2.184359999999999      2.184029999999999      4.358460000000000
Si      4.357120000000000      0.009512360000000      4.360120000000000
C       5.457570000000000      1.092870000000000      3.267840000000000
C       9.823190000000000      1.089360000000000      3.269470000000000
Si     10.916600000000001      2.178550000000000      4.358940000000000
Si      0.007449219999999      4.360940000000000      4.358460000000000
C       3.277440000000000      3.272640000000000      3.268250000000000
Si      4.372220000000000      4.361860000000000      4.355360000000000
C       7.643530000000000      3.270200000000000      3.267730000000000
Si      8.734970000000001      2.180300000000000      2.178010000000000
Si     10.923200000000000      4.354770000000000      2.175480000000000
C      12.008900000000001      3.268740000000000      3.269870000000000
C       1.096059999999999      5.454020000000000      3.268250000000000
C       5.451900000000000      5.443130000000000      3.246310000000000
Si      6.610910000000000      6.495580000000000      4.293520000000000
C       9.835739999999999      5.442270000000000      3.263820000000000
C       3.266550000000000      7.628480000000000      3.246310000000000
Si      2.185279999999999      6.548800000000000      4.355360000000000
C       7.677539999999999      7.596630000000000      3.180000000000000
Si     10.924899999999999      6.533700000000000      4.360120000000000
C      12.008300000000000      7.634150000000000      3.267840000000000
C       1.093619999999999      9.820110000000000      3.267730000000000
Si      2.177649999999999     10.920000000000000      4.359920000000000
Si     13.095700000000001     10.911600000000000      2.178010000000000
Si      0.004893349999999      8.727290000000000      4.359310000000000
Si      4.318989999999999      8.787490000000000      4.293520000000000
Si      6.484200000000000     10.959099999999999      4.297370000000000
C       5.420039999999999      9.854130000000000      3.180000000000000
Si      8.782489999999999      8.660780000000001      4.297370000000000
C       9.833299999999999      9.823549999999999      3.248850000000000
Si     10.915200000000000     10.904700000000000      4.356990000000000
Si     13.093999999999999      0.001195290000000      4.358940000000000
C       3.265689999999999     12.012300000000000      3.263820000000000
C       7.646969999999999     12.009900000000000      3.248850000000000
Si     10.914099999999999     13.090700000000000      2.178740000000000
C      12.004799999999999     11.999800000000000      3.269470000000000
Si      0.004832509999999      2.181420000000000      6.540690000000000
C       3.271929999999999      1.097969999999999      5.452940000000000
Si      6.550700000000000      2.181480000000000      4.359310000000000
C       7.639100000000000      1.089350000000000      5.451440000000000
Si      8.728160000000001     13.091799999999999      4.356990000000000
C      12.007300000000001      1.091880000000000      5.449490000000000
Si     10.917600000000000      0.002159500000000      6.536460000000000
C       1.094099999999999      3.270690000000000      5.449130000000000
Si      2.184169999999999      4.360750000000000      6.535410000000000
C       5.462330000000000      3.274130000000000      5.450550000000000
Si      8.743449999999999      4.354230000000000      4.359920000000000
Si      8.733800000000000      2.177709999999999      6.542180000000000
C       9.829280000000001      3.265750000000000      5.452910000000000
C       3.271889999999999      5.448470000000000      5.437460000000000
C       7.661200000000000      5.444050000000000      5.457590000000000
Si     10.921900000000001      4.356620000000000      6.542130000000000
C      12.013400000000001      5.448510000000000      5.452940000000000
C       1.097549999999999      7.638910000000000      5.450550000000000
C       5.456000000000000      7.630000000000000      5.456000000000000
C       9.837170000000000      7.614830000000000      5.460250000000000
Si     10.920299999999999      8.719469999999999      6.544640000000000
Si      0.009632829999999      6.544570000000000      6.541820000000000
C       3.267469999999999      9.837780000000000      5.457590000000000
C       7.640000000000000      9.820000000000000      5.455000000000000
C      12.004799999999999      9.815680000000000      5.451440000000000
C       1.089169999999999     12.005900000000000      5.452910000000000
C       5.438249999999999     12.013700000000000      5.460250000000000
C       9.828770000000000     12.005400000000000      5.439960000000000
C       1.092710000000000      1.094200000000000      7.633780000000000
Si      2.185789999999999      2.185690000000000      8.721840000000000
C       5.455719999999999      1.096600000000000      7.636120000000000
Si      6.551189999999999      2.182609999999999      8.726900000000001
Si      6.542880000000000      0.004833690000000      6.544640000000000
C       9.823240000000000      1.087850000000000      7.633280000000000
Si      0.002007389999999     13.093100000000000      8.722410000000000
C       3.279210000000000      3.276559999999999      7.632600000000000
Si      4.367990000000000      2.186220000000000      6.541820000000000
Si      6.558920000000000      4.359780000000000      6.542540000000000
C       7.646099999999999      3.268570000000000      7.635320000000000
Si      8.738790000000000      4.355909999999999      8.729590000000000
Si     10.916499999999999      2.178589999999999      8.722410000000000
C      12.009600000000001      3.269289999999999      7.633780000000000
C       1.099969999999999      5.455789999999999      7.632600000000000
Si      2.181159999999999      6.552260000000000      8.732480000000001
Si      4.294320000000000      6.470900000000000      6.633930000000000
C       5.483399999999999      5.442209999999999      7.654550000000000
Si      8.748150000000001      6.531490000000000      6.555130000000000
C       9.837160000000001      5.442179999999999      7.639960000000000
Si      0.009108409999999      4.362369999999999      8.721840000000000
Si     10.925200000000000      6.539009999999999      8.730240000000000
Si      2.183189999999999      8.735510000000000      6.542540000000000
C       3.265619999999999      7.659989999999999      7.654550000000000
C       7.705199999999998      7.582949999999999      7.731110000000000
C      12.012000000000000      7.632299999999999      7.636120000000000
C       1.091989999999999      9.822680000000000      7.635320000000000
Si      6.640859999999999      8.817440000000000      6.845340000000000
C       5.406369999999998      9.881790000000001      7.731110000000000
C       9.840260000000001      9.795710000000000      7.659260000000000
Si      0.001124689999999     10.910399999999999      6.542180000000000
Si      2.180029999999999     13.098500000000000      6.542130000000000
C       3.265599999999999     12.013700000000000      7.639960000000000
Si      4.354899999999999     10.924700000000000      6.555130000000000
C       7.619119999999998     12.016800000000000      7.659260000000000
Si      8.807510000000001     10.984100000000000      6.640230000000000
C      12.003299999999999     11.999800000000000      7.633280000000000
C       3.272240000000000      1.098089999999999      9.816920000000000
Si      4.362429999999998     13.101800000000001      8.730240000000000
C       7.640079999999999      1.097029999999999      9.822450000000000
Si      8.727850000000000      0.008185579999999      8.735130000000000
C      12.005599999999999      1.090219999999999      9.814610000000000
C       1.096939999999999      3.273520000000000      9.814240000000000
Si      4.365579999999999      2.184519999999999     10.907600000000000
C       5.462019999999999      3.268600000000000      9.821120000000001
Si      6.551969999999999      4.353449999999999     10.915500000000000
C       9.829310000000000      3.266859999999999      9.816720000000000
Si     10.921300000000000      4.357699999999999     10.905300000000000
Si     13.097300000000001      2.181839999999999     10.903900000000000
Si      2.187589999999999      4.364169999999999     10.904700000000000
C       3.279259999999999      5.455839999999999      9.816140000000001
Si      4.375679999999999      4.357739999999999      8.732480000000001
Si      6.558729999999999      6.524699999999999      8.767980000000000
C       7.652819999999999      5.436429999999999      9.837859999999999
Si      8.743100000000000      6.535469999999999     10.919300000000000
C      12.013500000000001      5.448820000000000      9.816920000000000
C       1.092019999999999      7.638599999999999      9.821120000000001
Si      4.348119999999998      8.735320000000000      8.767980000000000
C       5.459379999999999      7.635959999999999      9.835120000000000
C       9.848690000000000      7.622969999999999      9.843410000000000
Si     10.928599999999999      8.726960000000000     10.918600000000000
Si      2.179329999999999     10.915400000000000      8.729590000000000
C       3.259849999999999      9.829409999999999      9.837859999999999
C       7.645889999999998      9.822469999999999      9.839010000000000
Si      8.765470000000001      8.719530000000001      8.779059999999999
Si     13.098000000000001      8.727770000000000      8.726900000000001
C      12.012400000000000      9.816660000000001      9.822450000000000
C       1.090279999999999     12.005900000000000      9.816720000000000
C       5.446389999999998     12.025300000000000      9.843410000000000
Si      6.542939999999998     10.942100000000000      8.779059999999999
Si     10.923600000000000     10.904400000000001      8.735130000000000
C       9.824220000000000     12.000800000000000      9.818220000000000
Si      0.003848099999999     10.913399999999999     10.908200000000001
Si      2.181109999999999      0.005883789999999     10.905300000000000
C       1.092669999999999      1.093819999999999     11.997600000000000
Si      2.184029999999999      2.184699999999999     13.087100000000000
Si      4.361469999999999      0.012453799999999     13.082500000000000
C       5.456319999999999      1.100129999999999     12.000100000000000
Si      6.550379999999999      0.013195399999999     10.918600000000000
C       9.826449999999999      1.089839999999999     11.997500000000000
Si     10.915500000000000      0.000063395799999     10.906200000000000
Si      4.367109999999999      4.360919999999999     13.086900000000000
C       3.275389999999999      3.273979999999999     11.996499999999999
C       7.645009999999999      3.265129999999999     11.998799999999999
Si      8.736789999999999      2.180429999999999     10.908200000000001
C      12.009200000000000      3.269249999999999     11.997600000000000
C       1.097399999999999      5.451969999999999     11.996499999999999
Si      2.184329999999999      6.543699999999999     13.086900000000000
Si      4.366299999999999      6.542879999999999     10.913900000000000
C       5.459259999999999      5.449019999999999     11.997800000000000
Si      6.553659999999999      6.538369999999999     13.081500000000000
C       9.833959999999999      5.444340000000000     12.000299999999999
Si     13.099900000000000      6.542159999999999     10.907600000000000
Si      2.176869999999999      8.728550000000000     10.915500000000000
C       3.272439999999999      7.635839999999999     11.997800000000000
Si      4.361789999999998      8.730240000000000     13.081500000000000
Si      6.551839999999999      8.728420000000000     10.920000000000000
C       7.647509999999998      7.631679999999999     11.999400000000000
Si      8.740380000000000      8.724869999999999     13.082599999999999
C      12.015499999999999      7.632899999999999     12.000100000000000
Si      0.005624789999999      8.727700000000000     13.088699999999999
C       1.088539999999999      9.821590000000000     11.998799999999999
Si      2.174109999999998     10.916800000000000     13.082300000000000
Si      4.358889999999998     10.919700000000001     10.919300000000000
C       5.455099999999998      9.824090000000000     11.999400000000000
C       9.830970000000001      9.819350000000000     11.999900000000000
C       3.267749999999998     12.010500000000000     12.000299999999999
Si      6.548289999999998     10.917000000000000     13.082599999999999
C       7.642769999999998     12.007500000000000     11.999900000000000
Si      8.737840000000000     10.914400000000001     10.917500000000000
C      12.005300000000000     12.003000000000000     11.997500000000000
